24
H8 C14 S2
S 12.266510 3.405945 1.005310
C 12.400705 3.824138 2.639793
C 10.547525 3.762011 1.017900
C 11.152105 4.241806 3.074273
H 13.205807 3.810664 3.143394
C 9.662356 3.601082 -0.119317
C 10.153798 4.173692 2.260446
H 11.031084 4.598097 3.940763
C 8.310644 3.884018 0.119317
C 10.091239 3.145239 -1.407944
C 8.735647 4.460371 2.439011
C 7.881761 4.339861 1.407944
C 7.425475 3.723089 -1.017900
C 9.237353 3.024729 -2.439011
H 11.019467 2.916943 -1.539605
H 8.409338 4.755284 3.282461
H 6.953533 4.568157 1.539605
S 5.706490 4.079155 -1.005310
C 7.819202 3.311408 -2.260446
H 9.563662 2.729816 -3.282461
C 5.572295 3.660962 -2.639793
C 6.820895 3.243294 -3.074273
H 4.767193 3.674436 -3.143394
H 6.941916 2.887003 -3.940763